Circuit: * Y:\Documents\LTspice\TP 1 TC\punto1.asc


Date: Mon Aug 12 14:38:45 2019
Total elapsed time: 0.109 seconds.

tnom = 27
temp = 27
method = trap
totiter = 0
traniter = 0
tranpoints = 0
accept = 0
rejected = 0
matrix size = 7
fillins = 6
solver = Normal

