Circuit: * C:\Users\milto\Github\TP01\Ejercicio 1\LTspice\punto1_2.asc


Date: Thu Aug 15 19:58:20 2019
Total elapsed time: 0.103 seconds.

tnom = 27
temp = 27
method = trap
totiter = 0
traniter = 0
tranpoints = 0
accept = 0
rejected = 0
matrix size = 7
fillins = 6
solver = Normal

